case_study/opendss_scripts/LVTestCase/di_col_700_Power_elem_MVA.txt

CIRCUIT ELEMENT POWER FLOW

(Power Flow into element from indicated Bus)

Power Delivery Elements

  Bus     Phase     MW     +j   Mvar         MVA         PF

ELEMENT = "Vsource.SOURCE"
SOURCEBUS     1        -0.0 +j     -0.0        0.0       0.9899
SOURCEBUS     2        -0.0 +j     -0.0        0.0       0.9899
SOURCEBUS     3        -0.0 +j     -0.0        0.0       0.9899
   TERMINAL TOTAL .    -0.0 +j     -0.0        0.0       0.9899
SOURCEBUS     0         0.0 +j      0.0        0.0       1.0000
SOURCEBUS     0         0.0 +j      0.0        0.0       1.0000
SOURCEBUS     0         0.0 +j      0.0        0.0       1.0000
   TERMINAL TOTAL .     0.0 +j      0.0        0.0       1.0000

ELEMENT = "Transformer.TR1"
SOURCEBUS     1         0.0 +j      0.0        0.0       0.9899
SOURCEBUS     2         0.0 +j      0.0        0.0       0.9899
SOURCEBUS     3         0.0 +j      0.0        0.0       0.9899
SOURCEBUS     0         0.0 +j      0.0        0.0       1.0000
   TERMINAL TOTAL .     0.0 +j      0.0        0.0       0.9899
1             1        -0.0 +j     -0.0        0.0       0.9951
1             2        -0.0 +j     -0.0        0.0       0.9951
1             3        -0.0 +j     -0.0        0.0       0.9951
1             0         0.0 +j      0.0        0.0       1.0000
   TERMINAL TOTAL .    -0.0 +j     -0.0        0.0       0.9951

ELEMENT = "Line.LINE1"
1             1         0.0 +j      0.0        0.0       0.9951
1             2         0.0 +j      0.0        0.0       0.9951
1             3         0.0 +j      0.0        0.0       0.9951
   TERMINAL TOTAL .     0.0 +j      0.0        0.0       0.9951
2             1        -0.0 +j     -0.0        0.0       0.9951
2             2        -0.0 +j     -0.0        0.0       0.9951
2             3        -0.0 +j     -0.0        0.0       0.9951
   TERMINAL TOTAL .    -0.0 +j     -0.0        0.0       0.9951

ELEMENT = "Line.LINE2"
2             1         0.0 +j      0.0        0.0       0.9504
2             2         0.0 +j      0.0        0.0       0.9504
2             3         0.0 +j      0.0        0.0       0.9504
   TERMINAL TOTAL .     0.0 +j      0.0        0.0       0.9504
3             1        -0.0 +j     -0.0        0.0       0.9504
3             2        -0.0 +j     -0.0        0.0       0.9504
3             3        -0.0 +j     -0.0        0.0       0.9504
   TERMINAL TOTAL .    -0.0 +j     -0.0        0.0       0.9504

ELEMENT = "Line.LINE3"
3             1         0.0 +j      0.0        0.0       0.9504
3             2         0.0 +j      0.0        0.0       0.9504
3             3         0.0 +j      0.0        0.0       0.9504
   TERMINAL TOTAL .     0.0 +j      0.0        0.0       0.9504
10            1        -0.0 +j     -0.0        0.0       0.9504
10            2        -0.0 +j     -0.0        0.0       0.9504
10            3        -0.0 +j     -0.0        0.0       0.9504
   TERMINAL TOTAL .    -0.0 +j     -0.0        0.0       0.9504

ELEMENT = "Line.LINE4"
10            1        -0.0 +j     -0.0        0.0       0.9475
10            2        -0.0 +j     -0.0        0.0       0.9475
10            3        -0.0 +j     -0.0        0.0       0.9475
   TERMINAL TOTAL .    -0.0 +j     -0.0        0.0       0.9475
11            1         0.0 +j      0.0        0.0       0.9475
11            2         0.0 +j      0.0        0.0       0.9475
11            3         0.0 +j      0.0        0.0       0.9475
   TERMINAL TOTAL .     0.0 +j      0.0        0.0       0.9475

ELEMENT = "Line.LINE5"
11            1         0.0 +j      0.0        0.0       0.9502
11            2         0.0 +j      0.0        0.0       0.9502
11            3         0.0 +j      0.0        0.0       0.9502
   TERMINAL TOTAL .     0.0 +j      0.0        0.0       0.9502
12            1        -0.0 +j     -0.0        0.0       0.9502
12            2        -0.0 +j     -0.0        0.0       0.9502
12            3        -0.0 +j     -0.0        0.0       0.9502
   TERMINAL TOTAL .    -0.0 +j     -0.0        0.0       0.9502

ELEMENT = "Line.LINE6"
12            1         0.0 +j      0.0        0.0       0.9502
12            2         0.0 +j      0.0        0.0       0.9502
12            3         0.0 +j      0.0        0.0       0.9502
   TERMINAL TOTAL .     0.0 +j      0.0        0.0       0.9502
13            1        -0.0 +j     -0.0        0.0       0.9502
13            2        -0.0 +j     -0.0        0.0       0.9502
13            3        -0.0 +j     -0.0        0.0       0.9502
   TERMINAL TOTAL .    -0.0 +j     -0.0        0.0       0.9502

ELEMENT = "Line.LINE7"
13            1        -0.0 +j     -0.0        0.0       0.9500
13            2        -0.0 +j     -0.0        0.0       0.9500
13            3        -0.0 +j     -0.0        0.0       0.9500
   TERMINAL TOTAL .    -0.0 +j     -0.0        0.0       0.9500
14            1         0.0 +j      0.0        0.0       0.9500
14            2         0.0 +j      0.0        0.0       0.9500
14            3         0.0 +j      0.0        0.0       0.9500
   TERMINAL TOTAL .     0.0 +j      0.0        0.0       0.9500

ELEMENT = "Line.LINE8"
10            1         0.0 +j      0.0        0.0       0.9500
10            2         0.0 +j      0.0        0.0       0.9500
10            3         0.0 +j      0.0        0.0       0.9500
   TERMINAL TOTAL .     0.0 +j      0.0        0.0       0.9500
100           1        -0.0 +j     -0.0        0.0       0.9500
100           2        -0.0 +j     -0.0        0.0       0.9500
100           3        -0.0 +j     -0.0        0.0       0.9500
   TERMINAL TOTAL .    -0.0 +j     -0.0        0.0       0.9500

ELEMENT = "Line.LINE9"
11            1        -0.0 +j     -0.0        0.0       0.9500
11            2        -0.0 +j     -0.0        0.0       0.9500
11            3        -0.0 +j     -0.0        0.0       0.9500
   TERMINAL TOTAL .    -0.0 +j     -0.0        0.0       0.9500
110           1         0.0 +j      0.0        0.0       0.9500
110           2         0.0 +j      0.0        0.0       0.9500
110           3         0.0 +j      0.0        0.0       0.9500
   TERMINAL TOTAL .     0.0 +j      0.0        0.0       0.9500

ELEMENT = "Line.LINE10"
12            1        -0.0 +j     -0.0        0.0       0.9500
12            2        -0.0 +j     -0.0        0.0       0.9500
12            3        -0.0 +j     -0.0        0.0       0.9500
   TERMINAL TOTAL .    -0.0 +j     -0.0        0.0       0.9500
120           1         0.0 +j      0.0        0.0       0.9500
120           2         0.0 +j      0.0        0.0       0.9500
120           3         0.0 +j      0.0        0.0       0.9500
   TERMINAL TOTAL .     0.0 +j      0.0        0.0       0.9500

ELEMENT = "Line.LINE11"
13            1         0.0 +j      0.0        0.0       0.9501
13            2         0.0 +j      0.0        0.0       0.9501
13            3         0.0 +j      0.0        0.0       0.9501
   TERMINAL TOTAL .     0.0 +j      0.0        0.0       0.9501
130           1        -0.0 +j     -0.0        0.0       0.9500
130           2        -0.0 +j     -0.0        0.0       0.9500
130           3        -0.0 +j     -0.0        0.0       0.9500
   TERMINAL TOTAL .    -0.0 +j     -0.0        0.0       0.9500

ELEMENT = "Line.LINE12"
14            1        -0.0 +j     -0.0        0.0       0.9500
14            2        -0.0 +j     -0.0        0.0       0.9500
14            3        -0.0 +j     -0.0        0.0       0.9500
   TERMINAL TOTAL .    -0.0 +j     -0.0        0.0       0.9500
140           1         0.0 +j      0.0        0.0       0.9500
140           2         0.0 +j      0.0        0.0       0.9500
140           3         0.0 +j      0.0        0.0       0.9500
   TERMINAL TOTAL .     0.0 +j      0.0        0.0       0.9500

ELEMENT = "Line.LINE13"
10            1        -0.0 +j     -0.0        0.0       0.9500
10            2        -0.0 +j     -0.0        0.0       0.9500
10            3        -0.0 +j     -0.0        0.0       0.9500
   TERMINAL TOTAL .    -0.0 +j     -0.0        0.0       0.9500
101           1         0.0 +j      0.0        0.0       0.9500
101           2         0.0 +j      0.0        0.0       0.9500
101           3         0.0 +j      0.0        0.0       0.9500
   TERMINAL TOTAL .     0.0 +j      0.0        0.0       0.9500

ELEMENT = "Line.LINE14"
11            1        -0.0 +j     -0.0        0.0       0.9500
11            2        -0.0 +j     -0.0        0.0       0.9500
11            3        -0.0 +j     -0.0        0.0       0.9500
   TERMINAL TOTAL .    -0.0 +j     -0.0        0.0       0.9500
111           1         0.0 +j      0.0        0.0       0.9500
111           2         0.0 +j      0.0        0.0       0.9500
111           3         0.0 +j      0.0        0.0       0.9500
   TERMINAL TOTAL .     0.0 +j      0.0        0.0       0.9500

ELEMENT = "Line.LINE15"
12            1         0.0 +j      0.0        0.0       0.9500
12            2         0.0 +j      0.0        0.0       0.9500
12            3         0.0 +j      0.0        0.0       0.9500
   TERMINAL TOTAL .     0.0 +j      0.0        0.0       0.9500
121           1        -0.0 +j     -0.0        0.0       0.9500
121           2        -0.0 +j     -0.0        0.0       0.9500
121           3        -0.0 +j     -0.0        0.0       0.9500
   TERMINAL TOTAL .    -0.0 +j     -0.0        0.0       0.9500

ELEMENT = "Line.LINE16"
13            1        -0.0 +j     -0.0        0.0       0.9500
13            2        -0.0 +j     -0.0        0.0       0.9500
13            3        -0.0 +j     -0.0        0.0       0.9500
   TERMINAL TOTAL .    -0.0 +j     -0.0        0.0       0.9500
131           1         0.0 +j      0.0        0.0       0.9500
131           2         0.0 +j      0.0        0.0       0.9500
131           3         0.0 +j      0.0        0.0       0.9500
   TERMINAL TOTAL .     0.0 +j      0.0        0.0       0.9500

ELEMENT = "Line.LINE17"
14            1        -0.0 +j     -0.0        0.0       0.9500
14            2        -0.0 +j     -0.0        0.0       0.9500
14            3        -0.0 +j     -0.0        0.0       0.9500
   TERMINAL TOTAL .    -0.0 +j     -0.0        0.0       0.9500
141           1         0.0 +j      0.0        0.0       0.9500
141           2         0.0 +j      0.0        0.0       0.9500
141           3         0.0 +j      0.0        0.0       0.9500
   TERMINAL TOTAL .     0.0 +j      0.0        0.0       0.9500

ELEMENT = "Line.LINE18"
2             1        -0.0 +j     -0.0        0.0       0.9499
2             2        -0.0 +j     -0.0        0.0       0.9499
2             3        -0.0 +j     -0.0        0.0       0.9499
   TERMINAL TOTAL .    -0.0 +j     -0.0        0.0       0.9499
4             1         0.0 +j      0.0        0.0       0.9499
4             2         0.0 +j      0.0        0.0       0.9499
4             3         0.0 +j      0.0        0.0       0.9499
   TERMINAL TOTAL .     0.0 +j      0.0        0.0       0.9499

ELEMENT = "Line.LINE19"
4             1        -0.0 +j     -0.0        0.0       0.9499
4             2        -0.0 +j     -0.0        0.0       0.9499
4             3        -0.0 +j     -0.0        0.0       0.9499
   TERMINAL TOTAL .    -0.0 +j     -0.0        0.0       0.9499
20            1         0.0 +j      0.0        0.0       0.9499
20            2         0.0 +j      0.0        0.0       0.9499
20            3         0.0 +j      0.0        0.0       0.9499
   TERMINAL TOTAL .     0.0 +j      0.0        0.0       0.9499

ELEMENT = "Line.LINE20"
20            1        -0.0 +j     -0.0        0.0       0.9499
20            2        -0.0 +j     -0.0        0.0       0.9499
20            3        -0.0 +j     -0.0        0.0       0.9499
   TERMINAL TOTAL .    -0.0 +j     -0.0        0.0       0.9499
21            1         0.0 +j      0.0        0.0       0.9499
21            2         0.0 +j      0.0        0.0       0.9499
21            3         0.0 +j      0.0        0.0       0.9499
   TERMINAL TOTAL .     0.0 +j      0.0        0.0       0.9499

ELEMENT = "Line.LINE21"
21            1        -0.0 +j     -0.0        0.0       0.9499
21            2        -0.0 +j     -0.0        0.0       0.9499
21            3        -0.0 +j     -0.0        0.0       0.9499
   TERMINAL TOTAL .    -0.0 +j     -0.0        0.0       0.9499
22            1         0.0 +j      0.0        0.0       0.9499
22            2         0.0 +j      0.0        0.0       0.9499
22            3         0.0 +j      0.0        0.0       0.9499
   TERMINAL TOTAL .     0.0 +j      0.0        0.0       0.9499

ELEMENT = "Line.LINE22"
22            1        -0.0 +j     -0.0        0.0       0.9500
22            2        -0.0 +j     -0.0        0.0       0.9500
22            3        -0.0 +j     -0.0        0.0       0.9500
   TERMINAL TOTAL .    -0.0 +j     -0.0        0.0       0.9500
23            1         0.0 +j      0.0        0.0       0.9500
23            2         0.0 +j      0.0        0.0       0.9500
23            3         0.0 +j      0.0        0.0       0.9500
   TERMINAL TOTAL .     0.0 +j      0.0        0.0       0.9500

ELEMENT = "Line.LINE23"
23            1        -0.0 +j     -0.0        0.0       0.9500
23            2        -0.0 +j     -0.0        0.0       0.9500
23            3        -0.0 +j     -0.0        0.0       0.9500
   TERMINAL TOTAL .    -0.0 +j     -0.0        0.0       0.9500
24            1         0.0 +j      0.0        0.0       0.9500
24            2         0.0 +j      0.0        0.0       0.9500
24            3         0.0 +j      0.0        0.0       0.9500
   TERMINAL TOTAL .     0.0 +j      0.0        0.0       0.9500

ELEMENT = "Line.LINE24"
20            1        -0.0 +j     -0.0        0.0       0.9500
20            2        -0.0 +j     -0.0        0.0       0.9500
20            3        -0.0 +j     -0.0        0.0       0.9500
   TERMINAL TOTAL .    -0.0 +j     -0.0        0.0       0.9500
200           1         0.0 +j      0.0        0.0       0.9500
200           2         0.0 +j      0.0        0.0       0.9500
200           3         0.0 +j      0.0        0.0       0.9500
   TERMINAL TOTAL .     0.0 +j      0.0        0.0       0.9500

ELEMENT = "Line.LINE25"
21            1         0.0 +j      0.0        0.0       0.9500
21            2         0.0 +j      0.0        0.0       0.9500
21            3         0.0 +j      0.0        0.0       0.9500
   TERMINAL TOTAL .     0.0 +j      0.0        0.0       0.9500
210           1        -0.0 +j     -0.0        0.0       0.9500
210           2        -0.0 +j     -0.0        0.0       0.9500
210           3        -0.0 +j     -0.0        0.0       0.9500
   TERMINAL TOTAL .    -0.0 +j     -0.0        0.0       0.9500

ELEMENT = "Line.LINE26"
22            1         0.0 +j      0.0        0.0       0.9500
22            2         0.0 +j      0.0        0.0       0.9500
22            3         0.0 +j      0.0        0.0       0.9500
   TERMINAL TOTAL .     0.0 +j      0.0        0.0       0.9500
220           1        -0.0 +j     -0.0        0.0       0.9500
220           2        -0.0 +j     -0.0        0.0       0.9500
220           3        -0.0 +j     -0.0        0.0       0.9500
   TERMINAL TOTAL .    -0.0 +j     -0.0        0.0       0.9500

ELEMENT = "Line.LINE27"
23            1         0.0 +j      0.0        0.0       0.9500
23            2         0.0 +j      0.0        0.0       0.9500
23            3         0.0 +j      0.0        0.0       0.9500
   TERMINAL TOTAL .     0.0 +j      0.0        0.0       0.9500
230           1        -0.0 +j     -0.0        0.0       0.9500
230           2        -0.0 +j     -0.0        0.0       0.9500
230           3        -0.0 +j     -0.0        0.0       0.9500
   TERMINAL TOTAL .    -0.0 +j     -0.0        0.0       0.9500

ELEMENT = "Line.LINE28"
24            1        -0.0 +j     -0.0        0.0       0.9500
24            2        -0.0 +j     -0.0        0.0       0.9500
24            3        -0.0 +j     -0.0        0.0       0.9500
   TERMINAL TOTAL .    -0.0 +j     -0.0        0.0       0.9500
240           1         0.0 +j      0.0        0.0       0.9500
240           2         0.0 +j      0.0        0.0       0.9500
240           3         0.0 +j      0.0        0.0       0.9500
   TERMINAL TOTAL .     0.0 +j      0.0        0.0       0.9500

ELEMENT = "Line.LINE29"
20            1         0.0 +j      0.0        0.0       0.9500
20            2         0.0 +j      0.0        0.0       0.9500
20            3         0.0 +j      0.0        0.0       0.9500
   TERMINAL TOTAL .     0.0 +j      0.0        0.0       0.9500
201           1        -0.0 +j     -0.0        0.0       0.9500
201           2        -0.0 +j     -0.0        0.0       0.9500
201           3        -0.0 +j     -0.0        0.0       0.9500
   TERMINAL TOTAL .    -0.0 +j     -0.0        0.0       0.9500

ELEMENT = "Line.LINE30"
21            1         0.0 +j      0.0        0.0       0.9500
21            2         0.0 +j      0.0        0.0       0.9500
21            3         0.0 +j      0.0        0.0       0.9500
   TERMINAL TOTAL .     0.0 +j      0.0        0.0       0.9500
211           1        -0.0 +j     -0.0        0.0       0.9500
211           2        -0.0 +j     -0.0        0.0       0.9500
211           3        -0.0 +j     -0.0        0.0       0.9500
   TERMINAL TOTAL .    -0.0 +j     -0.0        0.0       0.9500

ELEMENT = "Line.LINE31"
22            1        -0.0 +j     -0.0        0.0       0.9500
22            2        -0.0 +j     -0.0        0.0       0.9500
22            3        -0.0 +j     -0.0        0.0       0.9500
   TERMINAL TOTAL .    -0.0 +j     -0.0        0.0       0.9500
221           1         0.0 +j      0.0        0.0       0.9500
221           2         0.0 +j      0.0        0.0       0.9500
221           3         0.0 +j      0.0        0.0       0.9500
   TERMINAL TOTAL .     0.0 +j      0.0        0.0       0.9500

ELEMENT = "Line.LINE32"
23            1        -0.0 +j     -0.0        0.0       0.9500
23            2        -0.0 +j     -0.0        0.0       0.9500
23            3        -0.0 +j     -0.0        0.0       0.9500
   TERMINAL TOTAL .    -0.0 +j     -0.0        0.0       0.9500
231           1         0.0 +j      0.0        0.0       0.9500
231           2         0.0 +j      0.0        0.0       0.9500
231           3         0.0 +j      0.0        0.0       0.9500
   TERMINAL TOTAL .     0.0 +j      0.0        0.0       0.9500

ELEMENT = "Line.LINE33"
24            1        -0.0 +j     -0.0        0.0       0.9500
24            2        -0.0 +j     -0.0        0.0       0.9500
24            3        -0.0 +j     -0.0        0.0       0.9500
   TERMINAL TOTAL .    -0.0 +j     -0.0        0.0       0.9500
241           1         0.0 +j      0.0        0.0       0.9500
241           2         0.0 +j      0.0        0.0       0.9500
241           3         0.0 +j      0.0        0.0       0.9500
   TERMINAL TOTAL .     0.0 +j      0.0        0.0       0.9500

= = = = = = = = = = = = = = = = = = =  = = = = = = = = = = =  = =

Power Conversion Elements

  Bus     Phase     MW   +j  Mvar         MVA         PF

ELEMENT = "Load.LOAD1"
100           1       0.0 +j    0.0        0.0       0.9500
100           2       0.0 +j    0.0        0.0       0.9500
100           3       0.0 +j    0.0        0.0       0.9500
100           0       0.0 +j    0.0        0.0       1.0000
  TERMINAL TOTAL  .     0.0 +j      0.0        0.0       0.9500

ELEMENT = "Load.LOAD2"
110           1      -0.0 +j   -0.0        0.0       0.9500
110           2      -0.0 +j   -0.0        0.0       0.9500
110           3      -0.0 +j   -0.0        0.0       0.9500
110           0       0.0 +j    0.0        0.0       1.0000
  TERMINAL TOTAL  .    -0.0 +j     -0.0        0.0       0.9500

ELEMENT = "Load.LOAD3"
120           1      -0.0 +j   -0.0        0.0       0.9500
120           2      -0.0 +j   -0.0        0.0       0.9500
120           3      -0.0 +j   -0.0        0.0       0.9500
120           0       0.0 +j    0.0        0.0       1.0000
  TERMINAL TOTAL  .    -0.0 +j     -0.0        0.0       0.9500

ELEMENT = "Load.LOAD4"
130           1       0.0 +j    0.0        0.0       0.9500
130           2       0.0 +j    0.0        0.0       0.9500
130           3       0.0 +j    0.0        0.0       0.9500
130           0       0.0 +j    0.0        0.0       1.0000
  TERMINAL TOTAL  .     0.0 +j      0.0        0.0       0.9500

ELEMENT = "Load.LOAD5"
140           1      -0.0 +j   -0.0        0.0       0.9500
140           2      -0.0 +j   -0.0        0.0       0.9500
140           3      -0.0 +j   -0.0        0.0       0.9500
140           0       0.0 +j    0.0        0.0       1.0000
  TERMINAL TOTAL  .    -0.0 +j     -0.0        0.0       0.9500

ELEMENT = "Load.LOAD6"
101           1      -0.0 +j   -0.0        0.0       0.9500
101           2      -0.0 +j   -0.0        0.0       0.9500
101           3      -0.0 +j   -0.0        0.0       0.9500
101           0       0.0 +j    0.0        0.0       1.0000
  TERMINAL TOTAL  .    -0.0 +j     -0.0        0.0       0.9500

ELEMENT = "Load.LOAD7"
111           1      -0.0 +j   -0.0        0.0       0.9500
111           2      -0.0 +j   -0.0        0.0       0.9500
111           3      -0.0 +j   -0.0        0.0       0.9500
111           0       0.0 +j    0.0        0.0       1.0000
  TERMINAL TOTAL  .    -0.0 +j     -0.0        0.0       0.9500

ELEMENT = "Load.LOAD8"
121           1       0.0 +j    0.0        0.0       0.9500
121           2       0.0 +j    0.0        0.0       0.9500
121           3       0.0 +j    0.0        0.0       0.9500
121           0       0.0 +j    0.0        0.0       1.0000
  TERMINAL TOTAL  .     0.0 +j      0.0        0.0       0.9500

ELEMENT = "Load.LOAD9"
131           1      -0.0 +j   -0.0        0.0       0.9500
131           2      -0.0 +j   -0.0        0.0       0.9500
131           3      -0.0 +j   -0.0        0.0       0.9500
131           0       0.0 +j    0.0        0.0       1.0000
  TERMINAL TOTAL  .    -0.0 +j     -0.0        0.0       0.9500

ELEMENT = "Load.LOAD10"
141           1      -0.0 +j   -0.0        0.0       0.9500
141           2      -0.0 +j   -0.0        0.0       0.9500
141           3      -0.0 +j   -0.0        0.0       0.9500
141           0       0.0 +j    0.0        0.0       1.0000
  TERMINAL TOTAL  .    -0.0 +j     -0.0        0.0       0.9500

ELEMENT = "Load.LOAD11"
200           1      -0.0 +j   -0.0        0.0       0.9500
200           2      -0.0 +j   -0.0        0.0       0.9500
200           3      -0.0 +j   -0.0        0.0       0.9500
200           0       0.0 +j    0.0        0.0       1.0000
  TERMINAL TOTAL  .    -0.0 +j     -0.0        0.0       0.9500

ELEMENT = "Load.LOAD12"
210           1       0.0 +j    0.0        0.0       0.9500
210           2       0.0 +j    0.0        0.0       0.9500
210           3       0.0 +j    0.0        0.0       0.9500
210           0       0.0 +j    0.0        0.0       1.0000
  TERMINAL TOTAL  .     0.0 +j      0.0        0.0       0.9500

ELEMENT = "Load.LOAD13"
220           1       0.0 +j    0.0        0.0       0.9500
220           2       0.0 +j    0.0        0.0       0.9500
220           3       0.0 +j    0.0        0.0       0.9500
220           0       0.0 +j    0.0        0.0       1.0000
  TERMINAL TOTAL  .     0.0 +j      0.0        0.0       0.9500

ELEMENT = "Load.LOAD14"
230           1       0.0 +j    0.0        0.0       0.9500
230           2       0.0 +j    0.0        0.0       0.9500
230           3       0.0 +j    0.0        0.0       0.9500
230           0       0.0 +j    0.0        0.0       1.0000
  TERMINAL TOTAL  .     0.0 +j      0.0        0.0       0.9500

ELEMENT = "Load.LOAD15"
240           1      -0.0 +j   -0.0        0.0       0.9500
240           2      -0.0 +j   -0.0        0.0       0.9500
240           3      -0.0 +j   -0.0        0.0       0.9500
240           0       0.0 +j    0.0        0.0       1.0000
  TERMINAL TOTAL  .    -0.0 +j     -0.0        0.0       0.9500

ELEMENT = "Load.LOAD16"
201           1       0.0 +j    0.0        0.0       0.9500
201           2       0.0 +j    0.0        0.0       0.9500
201           3       0.0 +j    0.0        0.0       0.9500
201           0       0.0 +j    0.0        0.0       1.0000
  TERMINAL TOTAL  .     0.0 +j      0.0        0.0       0.9500

ELEMENT = "Load.LOAD17"
211           1       0.0 +j    0.0        0.0       0.9500
211           2       0.0 +j    0.0        0.0       0.9500
211           3       0.0 +j    0.0        0.0       0.9500
211           0       0.0 +j    0.0        0.0       1.0000
  TERMINAL TOTAL  .     0.0 +j      0.0        0.0       0.9500

ELEMENT = "Load.LOAD18"
221           1      -0.0 +j   -0.0        0.0       0.9500
221           2      -0.0 +j   -0.0        0.0       0.9500
221           3      -0.0 +j   -0.0        0.0       0.9500
221           0       0.0 +j    0.0        0.0       1.0000
  TERMINAL TOTAL  .    -0.0 +j     -0.0        0.0       0.9500

ELEMENT = "Load.LOAD19"
231           1      -0.0 +j   -0.0        0.0       0.9500
231           2      -0.0 +j   -0.0        0.0       0.9500
231           3      -0.0 +j   -0.0        0.0       0.9500
231           0       0.0 +j    0.0        0.0       1.0000
  TERMINAL TOTAL  .    -0.0 +j     -0.0        0.0       0.9500

ELEMENT = "Load.LOAD20"
241           1      -0.0 +j   -0.0        0.0       0.9500
241           2      -0.0 +j   -0.0        0.0       0.9500
241           3      -0.0 +j   -0.0        0.0       0.9500
241           0       0.0 +j    0.0        0.0       1.0000
  TERMINAL TOTAL  .    -0.0 +j     -0.0        0.0       0.9500


Total Circuit Losses =    0.0 +j    0.0
